Circuit: * C:\Users\DIEGO\Documents\IDE\Lab7\Butterworth\Butterworth.asc

Direct Newton iteration for .op point succeeded.

find: mag(v(vout)/v(vin))=0.707 AT 53.3627


Date: Wed Mar 26 00:04:09 2025
Total elapsed time: 0.030 seconds.

tnom = 27
temp = 27
method = trap
totiter = 3
traniter = 0
tranpoints = 0
accept = 0
rejected = 0
matrix size = 10
fillins = 3
solver = Normal
Matrix Compiler1:      28 opcodes
Matrix Compiler2: 794 bytes object code size
