Circuit: * C:\Users\diego\Documents\IDE\Lab7\Butterworth\Butterworth.asc

Direct Newton iteration for .op point succeeded.

find: mag(v(vout)/v(vin))=0.707 AT 41.831


Date: Wed Mar 26 13:48:36 2025
Total elapsed time: 0.082 seconds.

tnom = 27
temp = 27
method = trap
totiter = 3
traniter = 0
tranpoints = 0
accept = 0
rejected = 0
matrix size = 10
fillins = 3
solver = Normal
Matrix Compiler1:      28 opcodes
Matrix Compiler2: 794 bytes object code size
