Circuit: * C:\Users\DIEGO\Documents\IDE\Lab7\RC_Low_Pass_Passive\RC_Low_Pass_Passive.asc


Date: Thu Mar 27 22:14:52 2025
Total elapsed time: 0.019 seconds.

tnom = 27
temp = 27
method = trap
totiter = 0
traniter = 0
tranpoints = 0
accept = 0
rejected = 0
matrix size = 3
fillins = 0
solver = Normal

