Circuit: * C:\Users\DIEGO\Documents\IDE\Lab7\RC_Low_Pass_Passive\RC_Low_Pass_Passive_C_Gradient.asc

.step c=1e-010
.step c=1e-009
.step c=1e-008
.step c=1e-007


Measurement: find
  step	mag(v(vout)/v(vin))=0.707
     1	159206
     2	15920.6
     3	1592.06
     4	159.206


Date: Thu Mar 27 23:49:52 2025
Total elapsed time: 0.060 seconds.

tnom = 27
temp = 27
method = trap
totiter = 0
traniter = 0
tranpoints = 0
accept = 0
rejected = 0
matrix size = 3
fillins = 0
solver = Normal

