Circuit: * C:\Users\DIEGO\Documents\IDE\Lab7\Sallen-Key_2nd_order\Sallen-key_2nd_order.asc

Direct Newton iteration for .op point succeeded.

Date: Thu Mar 27 23:13:10 2025
Total elapsed time: 0.018 seconds.

tnom = 27
temp = 27
method = trap
totiter = 3
traniter = 0
tranpoints = 0
accept = 0
rejected = 0
matrix size = 10
fillins = 3
solver = Normal
Matrix Compiler1:      28 opcodes
Matrix Compiler2: 794 bytes object code size
