Circuit: * C:\Users\DIEGO\Documents\IDE\Lab7\RC_Low_Pass_Passive_2nd_Order\RC_Low_Pass_Passive_2nd_order.asc


Date: Fri Mar 28 05:11:15 2025
Total elapsed time: 0.021 seconds.

tnom = 27
temp = 27
method = trap
totiter = 0
traniter = 0
tranpoints = 0
accept = 0
rejected = 0
matrix size = 4
fillins = 0
solver = Normal

