Circuit: * C:\Users\DIEGO\Documents\IDE\Lab7\RC_Low_Pass_Passive_2nd_Order\RC_Low_Pass_Passive_2nd_order.asc


find: mag(v(vout)/v(vin))=0.707 AT 133.601


Date: Tue Mar 25 22:31:06 2025
Total elapsed time: 0.033 seconds.

tnom = 27
temp = 27
method = trap
totiter = 0
traniter = 0
tranpoints = 0
accept = 0
rejected = 0
matrix size = 4
fillins = 0
solver = Normal

